Version 4
SHEET 1 3560 1924
WIRE 720 -864 656 -864
WIRE 784 -864 768 -864
WIRE 816 -864 784 -864
WIRE 368 -848 304 -848
WIRE 432 -848 416 -848
WIRE 464 -848 432 -848
WIRE 336 -752 176 -752
WIRE 464 -752 464 -848
WIRE 464 -752 400 -752
WIRE 544 -752 464 -752
WIRE 624 -752 544 -752
WIRE 816 -752 816 -864
WIRE 816 -752 720 -752
WIRE 928 -752 816 -752
WIRE 992 -752 928 -752
WIRE 1024 -752 992 -752
WIRE 928 -720 928 -752
WIRE 672 -688 672 -704
WIRE 544 -624 544 -672
WIRE 672 -624 672 -688
WIRE 672 -624 544 -624
WIRE 928 -624 928 -640
WIRE 672 -592 672 -624
WIRE 672 -496 672 -528
WIRE 2032 -304 1984 -304
WIRE 2144 -304 2112 -304
WIRE 2192 -304 2144 -304
WIRE 2320 -304 2272 -304
WIRE 928 -288 832 -288
WIRE 1104 -272 992 -272
WIRE 928 -256 608 -256
WIRE 1984 -256 1984 -304
WIRE 1104 -224 1104 -272
WIRE 1184 -224 1104 -224
WIRE 1408 -224 1264 -224
WIRE 1472 -224 1408 -224
WIRE 1648 -224 1552 -224
WIRE 832 -192 832 -288
WIRE 912 -192 832 -192
WIRE 912 -144 912 -192
WIRE 928 -144 912 -144
WIRE 1104 -144 1104 -224
WIRE 1104 -144 1008 -144
WIRE 176 -112 176 -752
WIRE 2144 -96 2144 -304
WIRE 2176 -96 2144 -96
WIRE 1408 -80 1408 -224
WIRE 1456 -80 1408 -80
WIRE 2320 -80 2320 -304
WIRE 2320 -80 2240 -80
WIRE 2368 -80 2320 -80
WIRE 1648 -64 1648 -224
WIRE 1648 -64 1520 -64
WIRE 1760 -64 1648 -64
WIRE 1888 -64 1840 -64
WIRE 1952 -64 1888 -64
WIRE 2064 -64 2032 -64
WIRE 2176 -64 2064 -64
WIRE 832 -48 832 -192
WIRE 1456 -48 1280 -48
WIRE 608 16 608 -256
WIRE 176 48 176 -32
WIRE 176 48 16 48
WIRE 1888 48 1888 -64
WIRE 2064 48 2064 -64
WIRE 16 64 16 48
WIRE 2064 64 2064 48
WIRE 832 112 832 32
WIRE 928 112 832 112
WIRE 1056 112 1008 112
WIRE 176 144 176 48
WIRE 2064 160 2064 112
WIRE 1056 208 1056 112
WIRE 1136 208 1056 208
WIRE 1280 208 1280 -48
WIRE 1280 208 1216 208
WIRE 1360 208 1280 208
WIRE 1520 208 1440 208
WIRE 1520 224 1520 208
WIRE 1888 224 1888 112
WIRE 2320 224 2320 -80
WIRE 2320 224 1888 224
WIRE 832 256 832 112
WIRE 928 256 832 256
WIRE 1056 272 1056 208
WIRE 1056 272 992 272
WIRE 608 288 608 96
WIRE 928 288 608 288
WIRE 608 352 608 288
WIRE 32 368 -16 368
WIRE 176 368 176 224
WIRE 176 368 96 368
WIRE 608 480 608 432
WIRE 176 544 176 368
WIRE 336 544 176 544
WIRE 672 544 592 544
WIRE 752 544 672 544
WIRE 800 544 752 544
WIRE 800 576 800 544
WIRE 672 608 672 544
WIRE 1344 608 1104 608
WIRE 1456 624 1408 624
WIRE 1504 624 1456 624
WIRE 1344 640 1312 640
WIRE 1104 720 1104 608
WIRE 176 736 176 544
WIRE 336 736 176 736
WIRE 672 736 672 672
WIRE 1312 752 1312 640
WIRE 1344 752 1312 752
WIRE 1456 752 1456 624
WIRE 1456 752 1424 752
WIRE 1312 800 1312 752
WIRE 464 832 464 800
WIRE 1104 864 1104 800
WIRE 1312 944 1312 880
FLAG 1520 224 0
FLAG 2064 160 0
FLAG 1984 -256 0
FLAG 2368 -80 Vout
FLAG 960 -304 VSP
FLAG 960 240 VSP
FLAG 1488 -96 VSP
FLAG 2208 -112 VSP
FLAG 960 -240 VSN
FLAG 960 304 VSN
FLAG 1488 -32 VSN
FLAG 2208 -48 VSN
FLAG 608 480 0
FLAG 16 64 0
FLAG 464 832 0
FLAG 672 736 0
FLAG -16 368 0
FLAG 672 -496 0
FLAG 304 -848 0
FLAG 928 -624 0
FLAG 656 -864 0
FLAG 992 -752 VSP
FLAG 800 656 0
FLAG 752 544 VSN
FLAG 1104 864 0
FLAG 1376 592 VSP
FLAG 1376 656 0
FLAG 1312 944 Vout
FLAG 1504 624 Vin
SYMBOL voltage 608 0 R0
WINDOW 123 24 124 Left 2
WINDOW 39 0 0 Left 0
SYMATTR InstName V1
SYMATTR Value SINE (0 100m 50)
SYMBOL OpAmps\\UniversalOpAmp2 1488 -64 R0
SYMATTR InstName U3
SYMBOL res 816 -64 R0
SYMATTR InstName R1
SYMATTR Value 1,16k
SYMBOL OpAmps\\UniversalOpAmp2 960 272 R0
SYMATTR InstName U2
SYMBOL res 592 336 R0
SYMATTR InstName R12
SYMATTR Value 10k
SYMBOL res 1024 96 R90
WINDOW 0 0 56 VBottom 2
WINDOW 3 32 56 VTop 2
SYMATTR InstName R3
SYMATTR Value 15k
SYMBOL res 1232 192 R90
WINDOW 0 0 56 VBottom 2
WINDOW 3 32 56 VTop 2
SYMATTR InstName R6
SYMATTR Value 10K
SYMBOL res 1456 192 R90
WINDOW 0 0 56 VBottom 2
WINDOW 3 32 56 VTop 2
SYMATTR InstName R7
SYMATTR Value 10k
SYMBOL res 1856 -80 R90
WINDOW 0 0 56 VBottom 2
WINDOW 3 32 56 VTop 2
SYMATTR InstName R8
SYMATTR Value 36k
SYMBOL res 2048 -80 R90
WINDOW 0 0 56 VBottom 2
WINDOW 3 32 56 VTop 2
SYMATTR InstName R9
SYMATTR Value 36k
SYMBOL cap 1872 48 R0
SYMATTR InstName C1
SYMATTR Value 42n
SYMBOL cap 2048 48 R0
SYMATTR InstName C2
SYMATTR Value 42n
SYMBOL OpAmps\\UniversalOpAmp2 960 -272 R0
SYMATTR InstName U1
SYMBOL OpAmps\\UniversalOpAmp2 2208 -80 R0
SYMATTR InstName U4
SYMBOL res 2128 -320 R90
WINDOW 0 0 56 VBottom 2
WINDOW 3 32 56 VTop 2
SYMATTR InstName R10
SYMATTR Value 20k
SYMBOL res 2288 -320 R90
WINDOW 0 0 56 VBottom 2
WINDOW 3 32 56 VTop 2
SYMATTR InstName R11
SYMATTR Value 10k
SYMBOL res 1280 -240 R90
WINDOW 0 0 56 VBottom 2
WINDOW 3 32 56 VTop 2
SYMATTR InstName R4
SYMATTR Value 10k
SYMBOL res 1568 -240 R90
WINDOW 0 0 56 VBottom 2
WINDOW 3 32 56 VTop 2
SYMATTR InstName R5
SYMATTR Value 10k
SYMBOL res 1024 -160 R90
WINDOW 0 0 56 VBottom 2
WINDOW 3 32 56 VTop 2
SYMATTR InstName R2
SYMATTR Value 15k
SYMBOL voltage 176 -128 R0
SYMATTR InstName V2
SYMATTR Value SINE(0 10 50)
SYMBOL voltage 176 128 R0
SYMATTR InstName V3
SYMATTR Value 12V
SYMBOL cap 656 608 R0
SYMATTR InstName C11
SYMATTR Value 2.2µ
SYMBOL PowerProducts\\ADP7182-5.0 464 640 R0
SYMATTR InstName U6
SYMBOL cap 96 352 R90
WINDOW 0 0 32 VBottom 2
WINDOW 3 32 32 VTop 2
SYMATTR InstName C8
SYMATTR Value 2.2µ
SYMBOL npn 624 -688 R270
SYMATTR InstName Q1
SYMATTR Value 2N2222
SYMBOL res 528 -768 R0
SYMATTR InstName R13
SYMATTR Value 800
SYMBOL zener 688 -528 R180
WINDOW 0 24 64 Left 2
WINDOW 3 24 0 Left 2
SYMATTR InstName D2
SYMATTR Value BZX84C6V2L
SYMATTR Description Diode
SYMATTR Type diode
SYMBOL cap 432 -864 R90
WINDOW 0 0 32 VBottom 2
WINDOW 3 32 32 VTop 2
SYMATTR InstName C5
SYMATTR Value 1000µ
SYMBOL res 912 -736 R0
SYMATTR InstName R16
SYMATTR Value 50
SYMBOL schottky 336 -736 R270
WINDOW 0 32 32 VTop 2
WINDOW 3 0 32 VBottom 2
SYMATTR InstName D6
SYMATTR Value RB531XN
SYMATTR Description Diode
SYMATTR Type diode
SYMBOL cap 784 -880 R90
WINDOW 0 0 32 VBottom 2
WINDOW 3 32 32 VTop 2
SYMATTR InstName C3
SYMATTR Value 1000µ
SYMBOL res 784 560 R0
SYMATTR InstName R15
SYMATTR Value 1Meg
SYMBOL voltage 1104 704 R0
SYMATTR InstName V7
SYMATTR Value 1.8
SYMBOL OpAmps\\UniversalOpAmp2 1376 624 R0
SYMATTR InstName U5
SYMBOL res 1296 784 R0
SYMATTR InstName R14
SYMATTR Value 1k
SYMBOL res 1440 736 R90
WINDOW 0 0 56 VBottom 2
WINDOW 3 32 56 VTop 2
SYMATTR InstName R17
SYMATTR Value 10Meg
TEXT 1288 416 Left 2 !.tran 150m
